Circuit: * C:\Users\bogdan\OneDrive\Desktop\Project_SwAIC_Hancis-Bogdan\Circuit Simulations\Etaj 1\Etaj_1_Hancis_Bogdan.asc

Direct Newton iteration failed to find .op point.  (Use ".option noopiter" to skip.)
Starting Gmin stepping
Gmin = 10
Gmin = 1.07374
Gmin = 0.115292
Gmin = 0.0123794
Gmin = 0.00132923
Gmin = 0.000142725
Gmin = 1.5325e-05
Gmin = 1.6455e-06
Gmin = 1.76685e-07
Gmin = 1.89714e-08
Gmin = 2.03704e-09
Gmin = 2.18725e-10
Gmin = 2.34854e-11
Gmin = 2.52173e-12
Gmin = 2.70769e-13
Gmin = 0
Gmin stepping succeeded in finding the operating point.


Date: Mon Jan 22 15:37:07 2024
Total elapsed time: 0.173 seconds.

tnom = 27
temp = 27
method = modified trap
totiter = 2606
traniter = 2164
tranpoints = 1083
accept = 1053
rejected = 30
matrix size = 48
fillins = 44
solver = Normal
Avg thread counts: 3.2/1.9/1.9/1.4
Matrix Compiler1: 4.24 KB object code size  1.0/0.7/[0.4]
Matrix Compiler2: 5.47 KB object code size  0.6/0.8/[0.3]

