Circuit: * C:\Users\bogdan\OneDrive\Desktop\Project_SwAIC_Hancis-Bogdan\Block Diagrams\Etaje.asc

Direct Newton iteration failed to find .op point.  (Use ".option noopiter" to skip.)
Starting Gmin stepping
Gmin = 10
Gmin = 1.07374
Gmin = 0.115292
Gmin = 0.0123794
Gmin = 0.00132923
Gmin = 0.000142725
Gmin = 1.5325e-05
Gmin = 1.6455e-06
Gmin = 1.76685e-07
vernier = 0.5
vernier = 0.25
vernier = 0.125
vernier = 0.0625
Gmin = 5.7896e-08
vernier = 0.03125
vernier = 0.015625
vernier = 0.0078125
vernier = 0.00390625
vernier = 0.00195312
vernier = 0.000976562
vernier = 0.000488281
Gmin = 0
Gmin stepping succeeded in finding the operating point.


Date: Sun Jan 21 17:22:02 2024
Total elapsed time: 0.845 seconds.

tnom = 27
temp = 27
method = modified trap
totiter = 8695
traniter = 6936
tranpoints = 2553
accept = 2022
rejected = 531
matrix size = 188
fillins = 106
solver = Normal
Avg thread counts: 3.1/1.4/1.4/1.1
Matrix Compiler1: 14.16 KB object code size  4.9/2.8/[0.8]
Matrix Compiler2: 19.98 KB object code size  2.3/3.2/[1.1]

